*TTL inverter static analysis

.model Q1 npn Bf=20
Q11 2 1 0 Q1
Q12 1 5 4 Q1
R2 2 3 1.6K
R1 5 3 4K
Vcc 3 0 5
Vin 4 0 dc 5

.dc Vin 0 5 0.05
.control
run
plot v(2) v(4)
.endc
.end