*RTL inverter using NPN BJT

.MODEL mod1 NPN(Bf = 20 Rb = 10k Rc = 1k)

Rb 1 2 10k
Q1 2 3 0 mod1
Rc 4 3 1k
VCC 4 0 5
Vin 1 0 5

.dc Vin 0 5 0.05


.control
run
plot V(1) V(3)
.endc
.end