*NMOS inverter

.model myNMOS NMOS(Vt0 =0.8 Kp = 20u)

Vin in 0 5
Vcc c 0 5

Rl c out 200k

M1 out in 0 0 myNMOS w=2u l = 1u

.dc Vin 0 5 0.05
.control
run

Plot V(in) V(out)
.endc
.end
